LAMMPS (23 Jun 2022 - Update 4)
variable       Text equal 300.0        # reference temperature, in K
variable       Ndump equal 1000
variable       Ndump2 equal 100

units          real
boundary       p p p
atom_style     full
include        "opls.ff"
pair_style lj/cut/coul/long 12.0
pair_modify mix geometric
kspace_style pppm 1.0e-5
bond_style harmonic
angle_style harmonic
dihedral_style opls
improper_style cvff
special_bonds lj/coul 0.0 0.0 0.5

read_data      "monomer.data" extra/special/per/atom 2
Reading data file ...
  orthogonal box = (-6.8 -1.2 -5.2) to (2.8 6.4 7.8)
  reading atoms ...
  36 atoms
  scanning bonds ...
  scanning angles ...
  scanning dihedrals ...
  scanning impropers ...
  reading bonds ...
  36 bonds
  reading angles ...
  66 angles
  reading dihedrals ...
  90 dihedrals
  reading impropers ...
  20 impropers
Finding 1-2 1-3 1-4 neighbors ...
     4 = max # of 1-2 neighbors
     7 = max # of 1-3 neighbors
    16 = max # of 1-4 neighbors
    21 = max # of special neighbors

replicate      3 3 3
Replicating atoms ...
  orthogonal box = (-6.8 -1.2 -5.2) to (22 21.6 33.8)
  972 atoms
  972 bonds
  1782 angles
  2430 dihedrals
  540 impropers
Finding 1-2 1-3 1-4 neighbors ...
     4 = max # of 1-2 neighbors
     7 = max # of 1-3 neighbors
    16 = max # of 1-4 neighbors
    21 = max # of special neighbors
  replicate CPU = 0.008 seconds

velocity       all create 300 4928459 dist gaussian

thermo         1000
thermo_style   custom step dt cpu time temp press density pe ke xlo xhi ylo yhi zlo zhi atoms
thermo_modify  flush yes

neigh_modify   every 1 delay 0 check yes

variable       padding equal 20

variable       xLo equal xlo-20
variable       xHi equal xhi+20
variable       yLo equal ylo-20
variable       yHi equal yhi+20
variable       zLo equal zlo-20
variable       zHi equal zhi+20

comm_style     tiled
fix            fxbalance all balance 100 1.1 rcb

# Adjust box dimensions:
change_box     all x final -26.8 42 units box
Changing box ...
  orthogonal box = (-26.8 -1.2 -5.2) to (42 21.6 33.8)
change_box     all y final -21.2 41.6 units box
Changing box ...
  orthogonal box = (-26.8 -21.2 -5.2) to (42 41.6 33.8)
change_box     all z final -25.2 53.8 units box
Changing box ...
  orthogonal box = (-26.8 -21.2 -25.2) to (42 41.6 53.8)
minimize       1.0e-20 1.0e-20 100000 100000
PPPM initialization ...
  G vector (1/distance) = 0.20258266
  grid = 24 24 25
  stencil order = 5
  estimated absolute RMS force accuracy = 0.0028953053
  estimated relative force accuracy = 8.719126e-06
  3d grid and FFT values/proc = 3468 1152
Generated 820 of 820 mixed pair_coeff terms from geometric mixing rule
  update every 1 steps, delay 0 steps, check yes
Step           Dt            CPU            Time           Temp          Press         Density         PotEng         KinEng          Xlo            Xhi            Ylo            Yhi            Zlo            Zhi          Atoms
0   1              0              0              300           -8.8629696      0.031033818    633.17287      868.30997     -26.8           42            -21.2           41.6          -25.2           53.8                 972
Loop time of 3.43327 on 16 procs for 1670 steps with 972 atoms

Minimization stats:
  Stopping criterion = linesearch alpha is zero
  Energy initial, next-to-last, final =
  Force two-norm initial, final = 631.2321 4.5963283
  Force max component initial, final = 45.21757 0.64485011
  Final line search alpha, max atom move = 3.3702654e-10 2.173316e-10
  Iterations, force evaluations = 1670 3390

reset_timestep 0

# relax the cell
dump           dump1 all custom 1000 traj.lammpstrj.relax id mol type element mass x y z ix iy iz
dump_modify    dump1 element O C C O C O C C C O O C C O C C H H H H H H H H H H H H H H H H H H H H C C O O H

timestep       2.0
fix            fxlangevin all langevin 300 300 $(150.0*dt) 12345
fix            fxlangevin all langevin 300 300 300 12345
fix            fxnve all nve
run            20000
PPPM initialization ...
  G vector (1/distance) = 0.20258266
  grid = 24 24 25
  stencil order = 5
  estimated absolute RMS force accuracy = 0.0028953053
  estimated relative force accuracy = 8.719126e-06
  3d grid and FFT values/proc = 3468 1152
Generated 820 of 820 mixed pair_coeff terms from geometric mixing rule
Step           Dt            CPU            Time           Temp          Press         Density         PotEng         KinEng          Xlo            Xhi            Ylo            Yhi            Zlo            Zhi          Atoms
0   2              0              0              300            112.94154      0.031033818   -136.34849      868.30997     -26.8           42            -21.2           41.6          -25.2           53.8                 972
Averages over the last 11 of 21 rows, steps 10000 to 20000:
Dt Temp Press Density PotEng KinEng Xlo Xhi Ylo Yhi Zlo Zhi Atoms
2 302.126 -20.3829 0.0310338 787.638 874.465 -26.8 42 -21.2 41.6 -25.2 53.8 972
Loop time of 13.045 on 16 procs for 20000 steps with 972 atoms

write_data     "monomers.pool.data"
System init for write_data ...
PPPM initialization ...
  G vector (1/distance) = 0.20258266
  grid = 24 24 25
  stencil order = 5
  estimated absolute RMS force accuracy = 0.0028953053
  estimated relative force accuracy = 8.719126e-06
  3d grid and FFT values/proc = 4860 1584
Generated 820 of 820 mixed pair_coeff terms from geometric mixing rule
unfix          fxnve
unfix          fxlangevin
undump         dump1

# Reaction with NVT
timestep       2.0
dump           dump2 all custom 100 traj.lammpstrj id mol type element mass x y z ix iy iz
dump_modify    dump2 element O C C O C O C C C O O C C O C C H H H H H H H H H H H H H H H H H H H H C C O O H
molecule       mol1 rxn1_ec_unreacted.data_template
Read molecule template mol1:
  1 molecules
  0 fragments
  22 atoms with max type 29
  20 bonds with max type 36
  33 angles with max type 66
  36 dihedrals with max type 89
  10 impropers with max type 14
molecule       mol2 rxn1_ec_reacted.data_template
Read molecule template mol2:
  1 molecules
  0 fragments
  22 atoms with max type 39
  19 bonds with max type 39
  32 angles with max type 70
  36 dihedrals with max type 102
  10 impropers with max type 14

thermo         100

fix            myrxns all bond/react stabilization yes statted_grp .03 react rxn1 all 1 0.0 3.5 mol1 mol2 rxn1_ec_map
dynamic group bond_react_MASTER_group defined
dynamic group statted_grp_REACT defined
fix            nvtReact statted_grp_REACT nvt temp 300 300 $(100.0*dt)
fix            nvtReact statted_grp_REACT nvt temp 300 300 200
fix            velocityRescale bond_react_MASTER_group temp/rescale 1 300 300 10 1

thermo_style   custom step time temp press density f_myrxns[1] atoms

run            10000

CITE-CITE-CITE-CITE-CITE-CITE-CITE-CITE-CITE-CITE-CITE-CITE-CITE

Your simulation uses code contributions which should be cited:

- fix bond/react: reacter.org

@Article{Gissinger17,
 author = {J. R. Gissinger, B. D. Jensen, K. E. Wise},
 title = {Modeling chemical reactions in classical molecular dynamics simulations},
 journal = {Polymer},
 year =    2017,
 volume =  128,
 pages =   {211--217}
}

@Article{Gissinger20,
 author = {J. R. Gissinger, B. D. Jensen, K. E. Wise},
 title = {REACTER: A Heuristic Method for Reactive Molecular Dynamics},
 journal = {Macromolecules},
 year =    2020,
 volume =  53,
 pages =   {9953--9961}
}

CITE-CITE-CITE-CITE-CITE-CITE-CITE-CITE-CITE-CITE-CITE-CITE-CITE

PPPM initialization ...
  G vector (1/distance) = 0.20258266
  grid = 24 24 25
  stencil order = 5
  estimated absolute RMS force accuracy = 0.0028953053
  estimated relative force accuracy = 8.719126e-06
  3d grid and FFT values/proc = 4860 1584
Generated 820 of 820 mixed pair_coeff terms from geometric mixing rule
  update every 1 steps, delay 0 steps, check yes
Step          Time           Temp          Press         Density      f_myrxns[1]      Atoms
20000   40000          289.22333     -184.2893       0.031033818    0                    972
Averages over the last 51 of 101 rows, steps 25000 to 30000:
Temp Press Density f_myrxns[1] Atoms
292.799 -17.557 0.0303396 7.92157 948.235
Loop time of 8.33579 on 16 procs for 10000 steps with 948 atoms

write_data     data.*
System init for write_data ...
PPPM initialization ...
  G vector (1/distance) = 0.20029103
  grid = 24 24 24
  stencil order = 5
  estimated absolute RMS force accuracy = 0.0030385851
  estimated relative force accuracy = 9.1506087e-06
  3d grid and FFT values/proc = 6688 2240
Generated 820 of 820 mixed pair_coeff terms from geometric mixing rule
write_data     data.final
System init for write_data ...
PPPM initialization ...
  G vector (1/distance) = 0.20029103
  grid = 24 24 24
  stencil order = 5
  estimated absolute RMS force accuracy = 0.0030385851
  estimated relative force accuracy = 9.1506087e-06
  3d grid and FFT values/proc = 6688 2240
Generated 820 of 820 mixed pair_coeff terms from geometric mixing rule
