LAMMPS (28 Mar 2023 - Update 1)

variable       Nprint equal 100

units          real
atom_style     full
boundary       p p p

read_data      bulk_melt.data
Reading data file ...
  orthogonal box = (-8.8733185 -7.59322 -8.104258) to (8.8733185 7.59322 8.104258)
  reading atoms ...
  496 atoms
  reading velocities ...
  496 velocities
  scanning bonds ...
  scanning angles ...
  scanning dihedrals ...
  scanning impropers ...
  reading bonds ...
  480 bonds
  reading angles ...
  848 angles
  reading dihedrals ...
  656 dihedrals
  reading impropers ...
  256 impropers
Finding 1-2 1-3 1-4 neighbors ...
     4 = max # of 1-2 neighbors
     6 = max # of 1-3 neighbors
    12 = max # of 1-4 neighbors
    14 = max # of special neighbors
include        cgenff36.ff
pair_style     lj/charmmfsw/coul/long 10.0 12.0
    pair_modify    tail yes
    kspace_style   pppm 1.0e-5
    bond_style     harmonic
    angle_style    charmm
    dihedral_style charmmfsw
    improper_style harmonic
    special_bonds  charmm
    neigh_modify   every 1 delay 0 check yes

    pair_coeff 1 1 0.192100 3.144872 0.192100 0.000000 # OG311-OG311
pair_coeff 1 2 0.094003 1.772443 0.094003 0.000000 # OG311-HGP1
pair_coeff 1 3 0.103719 3.363143 0.103719 0.000000 # OG311-CG321
pair_coeff 1 4 0.081997 2.766241 0.081997 0.000000 # OG311-HGA2
pair_coeff 1 5 0.081997 2.766241 0.081997 0.000000 # OG311-HGA2
pair_coeff 1 6 0.103719 3.363143 0.103719 0.000000 # OG311-CG321
pair_coeff 1 7 0.081997 2.766241 0.081997 0.000000 # OG311-HGA2
pair_coeff 1 8 0.081997 2.766241 0.081997 0.000000 # OG311-HGA2
pair_coeff 1 9 0.138600 3.042419 0.138600 0.000000 # OG311-OG301
pair_coeff 1 10 0.103719 3.363143 0.103719 0.000000 # OG311-CG321
pair_coeff 1 11 0.081997 2.766241 0.081997 0.000000 # OG311-HGA2
pair_coeff 1 12 0.081997 2.766241 0.081997 0.000000 # OG311-HGA2
pair_coeff 1 13 0.103719 3.363143 0.103719 0.000000 # OG311-CG321
pair_coeff 1 14 0.081997 2.766241 0.081997 0.000000 # OG311-HGA2
pair_coeff 1 15 0.081997 2.766241 0.081997 0.000000 # OG311-HGA2
pair_coeff 1 16 0.192100 3.144872 0.192100 0.000000 # OG311-OG311
pair_coeff 1 17 0.094003 1.772443 0.094003 0.000000 # OG311-HGP1
pair_coeff 2 2 0.046000 0.400014 0.046000 0.000000 # HGP1-HGP1
pair_coeff 2 3 0.050754 1.990713 0.050754 0.000000 # HGP1-CG321
pair_coeff 2 4 0.040125 1.393811 0.040125 0.000000 # HGP1-HGA2
pair_coeff 2 5 0.040125 1.393811 0.040125 0.000000 # HGP1-HGA2
pair_coeff 2 6 0.050754 1.990713 0.050754 0.000000 # HGP1-CG321
pair_coeff 2 7 0.040125 1.393811 0.040125 0.000000 # HGP1-HGA2
pair_coeff 2 8 0.040125 1.393811 0.040125 0.000000 # HGP1-HGA2
pair_coeff 2 9 0.067823 1.669990 0.067823 0.000000 # HGP1-OG301
pair_coeff 2 10 0.050754 1.990713 0.050754 0.000000 # HGP1-CG321
pair_coeff 2 11 0.040125 1.393811 0.040125 0.000000 # HGP1-HGA2
pair_coeff 2 12 0.040125 1.393811 0.040125 0.000000 # HGP1-HGA2
pair_coeff 2 13 0.050754 1.990713 0.050754 0.000000 # HGP1-CG321
pair_coeff 2 14 0.040125 1.393811 0.040125 0.000000 # HGP1-HGA2
pair_coeff 2 15 0.040125 1.393811 0.040125 0.000000 # HGP1-HGA2
pair_coeff 2 16 0.094003 1.772443 0.094003 0.000000 # HGP1-OG311
pair_coeff 2 17 0.046000 0.400014 0.046000 0.000000 # HGP1-HGP1
pair_coeff 3 3 0.056000 3.581413 0.056000 0.010000 # CG321-CG321
pair_coeff 3 4 0.044272 2.984511 0.044272 0.000000 # CG321-HGA2
pair_coeff 3 5 0.044272 2.984511 0.044272 0.000000 # CG321-HGA2
pair_coeff 3 6 0.056000 3.581413 0.056000 0.010000 # CG321-CG321
pair_coeff 3 7 0.044272 2.984511 0.044272 0.000000 # CG321-HGA2
pair_coeff 3 8 0.044272 2.984511 0.044272 0.000000 # CG321-HGA2
pair_coeff 3 9 0.074833 3.260689 0.074833 0.000000 # CG321-OG301
pair_coeff 3 10 0.056000 3.581413 0.056000 0.010000 # CG321-CG321
pair_coeff 3 11 0.044272 2.984511 0.044272 0.000000 # CG321-HGA2
pair_coeff 3 12 0.044272 2.984511 0.044272 0.000000 # CG321-HGA2
pair_coeff 3 13 0.056000 3.581413 0.056000 0.010000 # CG321-CG321
pair_coeff 3 14 0.044272 2.984511 0.044272 0.000000 # CG321-HGA2
pair_coeff 3 15 0.044272 2.984511 0.044272 0.000000 # CG321-HGA2
pair_coeff 3 16 0.103719 3.363143 0.103719 0.000000 # CG321-OG311
pair_coeff 3 17 0.050754 1.990713 0.050754 0.000000 # CG321-HGP1
pair_coeff 4 4 0.035000 2.387609 0.035000 0.000000 # HGA2-HGA2
pair_coeff 4 5 0.035000 2.387609 0.035000 0.000000 # HGA2-HGA2
pair_coeff 4 6 0.044272 2.984511 0.044272 0.000000 # HGA2-CG321
pair_coeff 4 7 0.035000 2.387609 0.035000 0.000000 # HGA2-HGA2
pair_coeff 4 8 0.035000 2.387609 0.035000 0.000000 # HGA2-HGA2
pair_coeff 4 9 0.059161 2.663787 0.059161 0.000000 # HGA2-OG301
pair_coeff 4 10 0.044272 2.984511 0.044272 0.000000 # HGA2-CG321
pair_coeff 4 11 0.035000 2.387609 0.035000 0.000000 # HGA2-HGA2
pair_coeff 4 12 0.035000 2.387609 0.035000 0.000000 # HGA2-HGA2
pair_coeff 4 13 0.044272 2.984511 0.044272 0.000000 # HGA2-CG321
pair_coeff 4 14 0.035000 2.387609 0.035000 0.000000 # HGA2-HGA2
pair_coeff 4 15 0.035000 2.387609 0.035000 0.000000 # HGA2-HGA2
pair_coeff 4 16 0.081997 2.766241 0.081997 0.000000 # HGA2-OG311
pair_coeff 4 17 0.040125 1.393811 0.040125 0.000000 # HGA2-HGP1
pair_coeff 5 5 0.035000 2.387609 0.035000 0.000000 # HGA2-HGA2
pair_coeff 5 6 0.044272 2.984511 0.044272 0.000000 # HGA2-CG321
pair_coeff 5 7 0.035000 2.387609 0.035000 0.000000 # HGA2-HGA2
pair_coeff 5 8 0.035000 2.387609 0.035000 0.000000 # HGA2-HGA2
pair_coeff 5 9 0.059161 2.663787 0.059161 0.000000 # HGA2-OG301
pair_coeff 5 10 0.044272 2.984511 0.044272 0.000000 # HGA2-CG321
pair_coeff 5 11 0.035000 2.387609 0.035000 0.000000 # HGA2-HGA2
pair_coeff 5 12 0.035000 2.387609 0.035000 0.000000 # HGA2-HGA2
pair_coeff 5 13 0.044272 2.984511 0.044272 0.000000 # HGA2-CG321
pair_coeff 5 14 0.035000 2.387609 0.035000 0.000000 # HGA2-HGA2
pair_coeff 5 15 0.035000 2.387609 0.035000 0.000000 # HGA2-HGA2
pair_coeff 5 16 0.081997 2.766241 0.081997 0.000000 # HGA2-OG311
pair_coeff 5 17 0.040125 1.393811 0.040125 0.000000 # HGA2-HGP1
pair_coeff 6 6 0.056000 3.581413 0.056000 0.010000 # CG321-CG321
pair_coeff 6 7 0.044272 2.984511 0.044272 0.000000 # CG321-HGA2
pair_coeff 6 8 0.044272 2.984511 0.044272 0.000000 # CG321-HGA2
pair_coeff 6 9 0.074833 3.260689 0.074833 0.000000 # CG321-OG301
pair_coeff 6 10 0.056000 3.581413 0.056000 0.010000 # CG321-CG321
pair_coeff 6 11 0.044272 2.984511 0.044272 0.000000 # CG321-HGA2
pair_coeff 6 12 0.044272 2.984511 0.044272 0.000000 # CG321-HGA2
pair_coeff 6 13 0.056000 3.581413 0.056000 0.010000 # CG321-CG321
pair_coeff 6 14 0.044272 2.984511 0.044272 0.000000 # CG321-HGA2
pair_coeff 6 15 0.044272 2.984511 0.044272 0.000000 # CG321-HGA2
pair_coeff 6 16 0.103719 3.363143 0.103719 0.000000 # CG321-OG311
pair_coeff 6 17 0.050754 1.990713 0.050754 0.000000 # CG321-HGP1
pair_coeff 7 7 0.035000 2.387609 0.035000 0.000000 # HGA2-HGA2
pair_coeff 7 8 0.035000 2.387609 0.035000 0.000000 # HGA2-HGA2
pair_coeff 7 9 0.059161 2.663787 0.059161 0.000000 # HGA2-OG301
pair_coeff 7 10 0.044272 2.984511 0.044272 0.000000 # HGA2-CG321
pair_coeff 7 11 0.035000 2.387609 0.035000 0.000000 # HGA2-HGA2
pair_coeff 7 12 0.035000 2.387609 0.035000 0.000000 # HGA2-HGA2
pair_coeff 7 13 0.044272 2.984511 0.044272 0.000000 # HGA2-CG321
pair_coeff 7 14 0.035000 2.387609 0.035000 0.000000 # HGA2-HGA2
pair_coeff 7 15 0.035000 2.387609 0.035000 0.000000 # HGA2-HGA2
pair_coeff 7 16 0.081997 2.766241 0.081997 0.000000 # HGA2-OG311
pair_coeff 7 17 0.040125 1.393811 0.040125 0.000000 # HGA2-HGP1
pair_coeff 8 8 0.035000 2.387609 0.035000 0.000000 # HGA2-HGA2
pair_coeff 8 9 0.059161 2.663787 0.059161 0.000000 # HGA2-OG301
pair_coeff 8 10 0.044272 2.984511 0.044272 0.000000 # HGA2-CG321
pair_coeff 8 11 0.035000 2.387609 0.035000 0.000000 # HGA2-HGA2
pair_coeff 8 12 0.035000 2.387609 0.035000 0.000000 # HGA2-HGA2
pair_coeff 8 13 0.044272 2.984511 0.044272 0.000000 # HGA2-CG321
pair_coeff 8 14 0.035000 2.387609 0.035000 0.000000 # HGA2-HGA2
pair_coeff 8 15 0.035000 2.387609 0.035000 0.000000 # HGA2-HGA2
pair_coeff 8 16 0.081997 2.766241 0.081997 0.000000 # HGA2-OG311
pair_coeff 8 17 0.040125 1.393811 0.040125 0.000000 # HGA2-HGP1
pair_coeff 9 9 0.100000 2.939966 0.100000 0.000000 # OG301-OG301
pair_coeff 9 10 0.074833 3.260689 0.074833 0.000000 # OG301-CG321
pair_coeff 9 11 0.059161 2.663787 0.059161 0.000000 # OG301-HGA2
pair_coeff 9 12 0.059161 2.663787 0.059161 0.000000 # OG301-HGA2
pair_coeff 9 13 0.074833 3.260689 0.074833 0.000000 # OG301-CG321
pair_coeff 9 14 0.059161 2.663787 0.059161 0.000000 # OG301-HGA2
pair_coeff 9 15 0.059161 2.663787 0.059161 0.000000 # OG301-HGA2
pair_coeff 9 16 0.138600 3.042419 0.138600 0.000000 # OG301-OG311
pair_coeff 9 17 0.067823 1.669990 0.067823 0.000000 # OG301-HGP1
pair_coeff 10 10 0.056000 3.581413 0.056000 0.010000 # CG321-CG321
pair_coeff 10 11 0.044272 2.984511 0.044272 0.000000 # CG321-HGA2
pair_coeff 10 12 0.044272 2.984511 0.044272 0.000000 # CG321-HGA2
pair_coeff 10 13 0.056000 3.581413 0.056000 0.010000 # CG321-CG321
pair_coeff 10 14 0.044272 2.984511 0.044272 0.000000 # CG321-HGA2
pair_coeff 10 15 0.044272 2.984511 0.044272 0.000000 # CG321-HGA2
pair_coeff 10 16 0.103719 3.363143 0.103719 0.000000 # CG321-OG311
pair_coeff 10 17 0.050754 1.990713 0.050754 0.000000 # CG321-HGP1
pair_coeff 11 11 0.035000 2.387609 0.035000 0.000000 # HGA2-HGA2
pair_coeff 11 12 0.035000 2.387609 0.035000 0.000000 # HGA2-HGA2
pair_coeff 11 13 0.044272 2.984511 0.044272 0.000000 # HGA2-CG321
pair_coeff 11 14 0.035000 2.387609 0.035000 0.000000 # HGA2-HGA2
pair_coeff 11 15 0.035000 2.387609 0.035000 0.000000 # HGA2-HGA2
pair_coeff 11 16 0.081997 2.766241 0.081997 0.000000 # HGA2-OG311
pair_coeff 11 17 0.040125 1.393811 0.040125 0.000000 # HGA2-HGP1
pair_coeff 12 12 0.035000 2.387609 0.035000 0.000000 # HGA2-HGA2
pair_coeff 12 13 0.044272 2.984511 0.044272 0.000000 # HGA2-CG321
pair_coeff 12 14 0.035000 2.387609 0.035000 0.000000 # HGA2-HGA2
pair_coeff 12 15 0.035000 2.387609 0.035000 0.000000 # HGA2-HGA2
pair_coeff 12 16 0.081997 2.766241 0.081997 0.000000 # HGA2-OG311
pair_coeff 12 17 0.040125 1.393811 0.040125 0.000000 # HGA2-HGP1
pair_coeff 13 13 0.056000 3.581413 0.056000 0.010000 # CG321-CG321
pair_coeff 13 14 0.044272 2.984511 0.044272 0.000000 # CG321-HGA2
pair_coeff 13 15 0.044272 2.984511 0.044272 0.000000 # CG321-HGA2
pair_coeff 13 16 0.103719 3.363143 0.103719 0.000000 # CG321-OG311
pair_coeff 13 17 0.050754 1.990713 0.050754 0.000000 # CG321-HGP1
pair_coeff 14 14 0.035000 2.387609 0.035000 0.000000 # HGA2-HGA2
pair_coeff 14 15 0.035000 2.387609 0.035000 0.000000 # HGA2-HGA2
pair_coeff 14 16 0.081997 2.766241 0.081997 0.000000 # HGA2-OG311
pair_coeff 14 17 0.040125 1.393811 0.040125 0.000000 # HGA2-HGP1
pair_coeff 15 15 0.035000 2.387609 0.035000 0.000000 # HGA2-HGA2
pair_coeff 15 16 0.081997 2.766241 0.081997 0.000000 # HGA2-OG311
pair_coeff 15 17 0.040125 1.393811 0.040125 0.000000 # HGA2-HGP1
pair_coeff 16 16 0.192100 3.144872 0.192100 0.000000 # OG311-OG311
pair_coeff 16 17 0.094003 1.772443 0.094003 0.000000 # OG311-HGP1
pair_coeff 17 17 0.046000 0.400014 0.046000 0.000000 # HGP1-HGP1

    bond_coeff 1 309.0000 1.1110 #  PROT alkane update, adm jr., 3/2/92
bond_coeff 2 309.0000 1.1110 #  PROT alkane update, adm jr., 3/2/92
bond_coeff 3 428.0000 1.4200 #  PROT methanol vib fit EMB 11/21/89
bond_coeff 4 545.0000 0.9600 #  PROT EMB 11/21/89 methanol vib fit; og tested on MeOH EtOH,...
bond_coeff 5 222.5000 1.5300 #  PROT alkane update, adm jr., 3/2/92
bond_coeff 6 309.0000 1.1110 #  PROT alkane update, adm jr., 3/2/92
bond_coeff 7 222.5000 1.5300 #  PROT alkane update, adm jr., 3/2/92

    angle_coeff 1 35.5000 109.00 5.4000 1.8020 #  PROT alkane update, adm jr., 3/2/92
angle_coeff 2 45.9000 108.89 0.0000 0.0000 #  PROT MeOH, EMB, 10/10/89
angle_coeff 3 45.9000 108.89 0.0000 0.0000 #  PROT MeOH, EMB, 10/10/89
angle_coeff 4 50.0000 106.00 0.0000 0.0000 #  sng mod (qm and crystal data); was 57.5 106
angle_coeff 5 26.5000 110.10 22.5300 2.1790 #  PROT alkane update, adm jr., 3/2/92
angle_coeff 6 26.5000 110.10 22.5300 2.1790 #  PROT alkane update, adm jr., 3/2/92
angle_coeff 7 75.7000 110.10 0.0000 0.0000 #  PROT MeOH, EMB, 10/10/89
angle_coeff 8 26.5000 110.10 22.5300 2.1790 #  PROT alkane update, adm jr., 3/2/92
angle_coeff 9 26.5000 110.10 22.5300 2.1790 #  PROT alkane update, adm jr., 3/2/92
angle_coeff 10 45.0000 111.50 0.0000 0.0000 #  diethylether, alex
angle_coeff 11 26.5000 110.10 22.5300 2.1790 #  PROT alkane update, adm jr., 3/2/92
angle_coeff 12 26.5000 110.10 22.5300 2.1790 #  PROT alkane update, adm jr., 3/2/92
angle_coeff 13 45.0000 111.50 0.0000 0.0000 #  diethylether, alex

    dihedral_coeff 1 0.1800 3 0 1.0 #  og methanol
dihedral_coeff 2 0.1800 3 0 1.0 #  og methanol
dihedral_coeff 3 0.1900 3 0 1.0 #  alkane, 4/98, yin and mackerell
dihedral_coeff 4 0.1900 3 0 1.0 #  alkane, 4/98, yin and mackerell
dihedral_coeff 5 0.1950 3 0 1.0 #  PROT alkane update, adm jr., 3/2/92
dihedral_coeff 6 0.1950 3 0 1.0 #  PROT alkane update, adm jr., 3/2/92
dihedral_coeff 7 0.1900 3 0 1.0 #  alkane, 4/98, yin and mackerell
dihedral_coeff 8 0.1900 3 0 1.0 #  alkane, 4/98, yin and mackerell
dihedral_coeff 9 0.1900 3 0 1.0 #  alkane, 4/98, yin and mackerell
dihedral_coeff 10 0.1900 3 0 1.0 #  alkane, 4/98, yin and mackerell
dihedral_coeff 11 0.5700 1 0 1.0 #  1,2 dimethoxyethane, 2/12/05, ATM

    improper_coeff 1 0.0000 0.00
improper_coeff 2 0.0000 0.00
improper_coeff 3 0.0000 0.00
improper_coeff 4 0.0000 0.00

thermo         100
thermo_style   custom step dt cpu temp press density pe ke xlo xhi ylo yhi zlo zhi
thermo_modify  flush yes

velocity       all create 300.0 1234 rot no dist gaussian

minimize       1.0e-20 1.0e-20 1000 1000
PPPM initialization ...
  G vector (1/distance) = 0.23113257
  grid = 9 8 8
  stencil order = 5
  estimated absolute RMS force accuracy = 0.0022579745
  estimated relative force accuracy = 6.7996615e-06
  3d grid and FFT values/proc = 3120 576
Generated 0 of 136 mixed pair_coeff terms from arithmetic mixing rule
Step           Dt            CPU            Temp          Press         Density         PotEng         KinEng          Xlo            Xhi            Ylo            Yhi            Zlo            Zhi
0   1              0              300           -78707.282      1.1813207      8077.3029      442.65029     -8.8733185      8.8733185     -7.59322        7.59322       -8.104258       8.104258
Loop time of 3.96848 on 1 procs for 424 steps with 496 atoms

Minimization stats:
  Stopping criterion = linesearch alpha is zero
  Energy initial, next-to-last, final =
  Force two-norm initial, final = 5692.2011 0.31696447
  Force max component initial, final = 461.1167 0.032708471
  Final line search alpha, max atom move = 1.1920929e-07 3.8991535e-09
  Iterations, force evaluations = 424 899

#reset_timestep 0
dump           dump1 all custom/mpiio 100 traj.lammpstrj id mol type element mass q x y z ix iy iz
dump           dump2 all xyz/mpiio 100 traj.xyz
fix            fxnpt all npt temp 300.0 300.0 150 iso 1.0 1.0 250
timestep       1.0
run            10000
PPPM initialization ...
  G vector (1/distance) = 0.23113257
  grid = 9 8 8
  stencil order = 5
  estimated absolute RMS force accuracy = 0.0022579745
  estimated relative force accuracy = 6.7996615e-06
  3d grid and FFT values/proc = 3120 576
Generated 0 of 136 mixed pair_coeff terms from arithmetic mixing rule
Step           Dt            CPU            Temp          Press         Density         PotEng         KinEng          Xlo            Xhi            Ylo            Yhi            Zlo            Zhi
424   1              0              300            18573.618      1.1813207     -126.15025      442.65029     -8.8733185      8.8733185     -7.59322        7.59322       -8.104258       8.104258
Averages over the last 51 of 102 rows, steps 5500 to 10424:
Dt Temp Press Density PotEng KinEng Xlo Xhi Ylo Yhi Zlo Zhi
1 297.204 1126.49 0.757834 85.3197 438.525 -10.2913 10.2913 -8.80662 8.80662 -9.39932 9.39932
Loop time of 30.3318 on 1 procs for 10000 steps with 496 atoms

unfix          fxnpt
write_data     data.* nocoeff
System init for write_data ...
PPPM initialization ...
  G vector (1/distance) = 0.22984701
  grid = 10 9 9
  stencil order = 5
  estimated absolute RMS force accuracy = 0.0020136148
  estimated relative force accuracy = 6.0637969e-06
  3d grid and FFT values/proc = 3360 810
Generated 0 of 136 mixed pair_coeff terms from arithmetic mixing rule

write_data     data.relaxed nocoeff
System init for write_data ...
PPPM initialization ...
  G vector (1/distance) = 0.22984701
  grid = 10 9 9
  stencil order = 5
  estimated absolute RMS force accuracy = 0.0020136148
  estimated relative force accuracy = 6.0637969e-06
  3d grid and FFT values/proc = 3360 810
Generated 0 of 136 mixed pair_coeff terms from arithmetic mixing rule
