LAMMPS (23 Jun 2022 - Update 4)
variable       T equal 300.0
variable       dt equal 0.1
variable       kB equal 1.3806504e-23    # [J/K] Boltzmann
variable       atm2Pa equal 101325.0
variable       A2m equal 1.0e-10
variable       fs2s equal 1.0e-15
variable       convert equal 101325*1e-15
variable       Nprint equal   500
variable       Ndump equal    500

units          real
atom_style     full
boundary       p p p

read_data      water.relaxed
Reading data file ...
  orthogonal box = (-0.05013121 -0.05013121 -0.05013121) to (18.650131 18.650131 18.650131)
  reading atoms ...
  648 atoms
  reading velocities ...
  648 velocities
  scanning bonds ...
  scanning angles ...
  reading bonds ...
  432 bonds
  reading angles ...
  216 angles
Finding 1-2 1-3 1-4 neighbors ...
     2 = max # of 1-2 neighbors
     1 = max # of 1-3 neighbors
     1 = max # of 1-4 neighbors
     2 = max # of special neighbors
include        tip4p2005.ff
# This forcefield file sets a 13-Angstrom cutoff, recommended for liquid-
# vapor simulations [Vega & de Miguel, J Chem Phys 126:154707 (2007),
# Vega et al, Faraday Discuss 141:251 (2009)]
# Note that the original TIP4P/2005 model was run with an 8.5 Angstrom
# cutoff [Abascal & Vega, J Chem Phys 123:234505 (2005)].
# Charges and geometry are specified in the "data." file.

mass 1 1.00794 # H
mass 2 15.9994 # O

pair_style lj/cut/tip4p/long 2 1 1 1 0.1546 13.0
pair_modify tail yes
kspace_style pppm/tip4p 1.0e-5

pair_coeff 1 1 0.0 0.0
pair_coeff 1 2 0.0 0.0
pair_coeff 2 2 0.18520 3.1589

bond_style harmonic
bond_coeff 1 0.0 0.9572

angle_style harmonic
angle_coeff 1 0.0 104.52

group          hydrogen type 1
432 atoms in group hydrogen
group          oxygen type 2
216 atoms in group oxygen
neighbor       2.0 bin
neigh_modify   every 1 delay 0 check yes
fix            constrain all shake 1.0e-4 100 0 b 1 a 1
       0 = # of size 2 clusters
       0 = # of size 3 clusters
       0 = # of size 4 clusters
     216 = # of frozen angles
  find clusters CPU = 0.000 seconds

timestep       0.1
fix            fxnvt all nvt temp $T $T $(500.0*dt)
fix            fxnvt all nvt temp 300 $T $(500.0*dt)
fix            fxnvt all nvt temp 300 300 $(500.0*dt)
fix            fxnvt all nvt temp 300 300 50
thermo         500
thermo_style   custom step temp density press lx ly lz
run            10000
PPPM initialization ...
  extracting TIP4P info from pair style
  G vector (1/distance) = 0.24466715
  grid = 15 15 15
  stencil order = 5
  estimated absolute RMS force accuracy = 0.0020512764
  estimated relative force accuracy = 6.177358e-06
  3d grid and FFT values/proc = 2156 256
Generated 0 of 1 mixed pair_coeff terms from geometric mixing rule
  update every 1 steps, delay 0 steps, check yes
Step          Temp         Density         Press            Lx             Ly             Lz
0   304.5636       0.9880996     -890.44522      18.700262      18.700262      18.700262
Averages over the last 11 of 21 rows, steps 5000 to 10000:
Temp Density Press Lx Ly Lz
294.093 0.9881 768.321 18.7003 18.7003 18.7003
Loop time of 10.2015 on 16 procs for 10000 steps with 648 atoms

unfix          fxnvt

variable       xzrate equal 0.00005
change_box     all triclinic
Changing box ...
  triclinic box = (-0.05013121 -0.05013121 -0.05013121) to (18.650131 18.650131 18.650131) with tilt (0 0 0)
kspace_style   pppm/tip4p 1.0e-4
dump           dump1 all custom 500 traj.nemd.lammpstrj id mol type x y z ix iy iz
dump           dump2 all xyz 500 traj.nemd.xyz
fix            1 all nvt/sllod temp $T $T 100
fix            1 all nvt/sllod temp 300 $T 100
fix            1 all nvt/sllod temp 300 300 100
fix            2 all deform 1 xz erate 5e-05 remap v

compute        layers all chunk/atom bin/1d z center 0.05 units reduced
fix            4 all ave/chunk 20 250 5000 layers vx file profile.nemd.3d.xz

compute        originalTemp all temp
compute        deformTemp all temp/deform

variable       viscosity equal -pxz*1.01325e-10/(v_xzrate)
thermo_style   custom step c_deformTemp c_originalTemp density press pxx pyy pzz pxy pxz pyz v_viscosity
thermo_modify  flush yes
run            10000
PPPM initialization ...
  extracting TIP4P info from pair style
  G vector (1/distance) = 0.22154317
  grid = 10 10 10
  stencil order = 5
  estimated absolute RMS force accuracy = 0.012683844
  estimated relative force accuracy = 3.819702e-05
  3d grid and FFT values/proc = 1296 90
Generated 0 of 1 mixed pair_coeff terms from geometric mixing rule
  update every 1 steps, delay 0 steps, check yes
Step      c_deformTemp  c_originalTemp    Density         Press           Pxx            Pyy            Pzz            Pxy            Pxz            Pyz        v_viscosity
10000   296.3958       294.81559      0.9880996      730.32803      188.06105      450.14467      1552.7784     -731.09452      911.31655     -705.18098     -0.001846783
Averages over the last 11 of 21 rows, steps 15000 to 20000:
c_deformTemp c_originalTemp Density Press Pxx Pyy Pzz Pxy Pxz Pyz v_viscosity
294.588 294.707 0.9881 -462.056 -579.188 -204.762 -602.219 -138.945 71.6725 -265.015 -0.000145244
Loop time of 9.54912 on 16 procs for 10000 steps with 648 atoms

fix            runningAverage all ave/time 1 100 500 v_viscosity ave running

thermo_style   custom step c_deformTemp c_originalTemp density press pxx pyy pzz pxy pxz pyz v_viscosity f_runningAverage
thermo_modify  flush yes

write_data     water_nemd.* nocoeff
System init for write_data ...
PPPM initialization ...
  extracting TIP4P info from pair style
  G vector (1/distance) = 0.22026208
  grid = 10 10 10
  stencil order = 5
  estimated absolute RMS force accuracy = 0.013957002
  estimated relative force accuracy = 4.2031097e-05
  3d grid and FFT values/proc = 1296 90
Generated 0 of 1 mixed pair_coeff terms from geometric mixing rule

run            100000
PPPM initialization ...
  extracting TIP4P info from pair style
  G vector (1/distance) = 0.22026208
  grid = 10 10 10
  stencil order = 5
  estimated absolute RMS force accuracy = 0.013957002
  estimated relative force accuracy = 4.2031097e-05
  3d grid and FFT values/proc = 1296 90
Generated 0 of 1 mixed pair_coeff terms from geometric mixing rule
Step      c_deformTemp  c_originalTemp    Density         Press           Pxx            Pyy            Pzz            Pxy            Pxz            Pyz        v_viscosity   f_runningAverage
20000   316.93247      316.95372      0.9880996      795.14489      1278.184       87.239239      1020.0115      444.93534      82.945646      1060.8027     -0.00016808935  0
Averages over the last 101 of 201 rows, steps 70000 to 120000:
c_deformTemp c_originalTemp Density Press Pxx Pyy Pzz Pxy Pxz Pyz v_viscosity f_runningAverage
299.148 298.82 0.9881 -298.03 -463.608 -222.142 -208.341 -272.663 -458.246 196.517 0.000928636 0.00104963
Loop time of 103.577 on 16 procs for 100000 steps with 648 atoms
