LAMMPS (23 Jun 2022 - Update 4)
 # https://github.com/t3rodrig/LammpsTutorials/blob/master/liquid-vapor/in.spce.txt
variable       Nsteps equal 500000    # 2 * 5e5 = 1e6 fs (1 ns). total number of steps in the simulation
variable       Nevery equal 100    # use input values every this many timesteps
variable       Nfreq equal 500000/100
variable       Nrepeat equal 0.5*v_Nfreq/100
variable       Text equal 300.0        # reference temperature, in K

processors     2 2 *
units          real
atom_style     full
boundary       p p p

read_data      "data.long_box.interfaces"
Reading data file ...
  orthogonal box = (-9.3 -9.3 -37.2) to (9.3 9.3 37.2)
  reading atoms ...
  648 atoms
  reading velocities ...
  648 velocities
  scanning bonds ...
  scanning angles ...
  reading bonds ...
  432 bonds
  reading angles ...
  216 angles
Finding 1-2 1-3 1-4 neighbors ...
     2 = max # of 1-2 neighbors
     1 = max # of 1-3 neighbors
     1 = max # of 1-4 neighbors
     2 = max # of special neighbors
include        "tip4p2005.ff"
# This forcefield file sets a 13-Angstrom cutoff, recommended for liquid-
# vapor simulations [Vega & de Miguel, J Chem Phys 126:154707 (2007),
# Vega et al, Faraday Discuss 141:251 (2009)]
# Note that the original TIP4P/2005 model was run with an 8.5 Angstrom
# cutoff [Abascal & Vega, J Chem Phys 123:234505 (2005)].
# Charges and geometry are specified in the "data." file.

mass 1 1.00794 # H
mass 2 15.9994 # O

pair_style lj/cut/tip4p/long 2 1 1 1 0.1546 13.0
pair_modify tail yes
kspace_style pppm/tip4p 1.0e-5

pair_coeff 1 1 0.0 0.0
pair_coeff 1 2 0.0 0.0
pair_coeff 2 2 0.18520 3.1589

bond_style harmonic
bond_coeff 1 0.0 0.9572

angle_style harmonic
angle_coeff 1 0.0 104.52

reset_timestep 0

fix            fxshake all shake 0.001 20 0 b 1 a 1
       0 = # of size 2 clusters
       0 = # of size 3 clusters
       0 = # of size 4 clusters
     216 = # of frozen angles
  find clusters CPU = 0.000 seconds

timestep       0.5
fix            fxnvt all nvt temp 300 300 $(150.0*dt)
fix            fxnvt all nvt temp 300 300 75

thermo         1000
thermo_style   custom step dt cpu time temp press density pe ke
thermo_modify  flush yes
neigh_modify   every 1 delay 0 check yes

variable       xPress equal c_thermo_press[1]
variable       yPress equal c_thermo_press[2]
variable       zPress equal c_thermo_press[3]
variable       A_in_m equal 1e-10 # Angstrom in meter
variable       atm_in_Pa equal 101325 # note: 1 Pa = 1 N/m^2
variable       N_in_mN equal 1e3 # Newton in milliNewton
variable       convFac equal 1e-10*101325*1000
variable       st equal 0.5*lz*(v_zPress-0.5*(v_xPress+v_yPress))*0.0101325
fix            st all ave/time 50 1 50 v_st file "out.surfTension.txt"
fix            strunning all ave/time 1 10 50 v_st ave running file "out.surfTension.running.txt"

variable       Dz equal 0.5 # Angstrom
compute        CC1 all chunk/atom bin/1d z center 0.5 units box
fix            massDens all ave/chunk 100 25 5000 CC1 density/mass file "out.massDens.zProfile.txt"

# Computes the symmetric per-atom stress tensor
compute        CC2 all chunk/atom bin/1d z center 0.5 units box
compute        stpa all stress/atom NULL
fix            stress all ave/chunk 100 25 5000 CC2 c_stpa[1] c_stpa[2] c_stpa[3] c_stpa[4] c_stpa[5] c_stpa[6] file "out.stress.zProfile.txt"

run            500000
PPPM initialization ...
  extracting TIP4P info from pair style
  G vector (1/distance) = 0.23245361
  grid = 15 15 36
  stencil order = 5
  estimated absolute RMS force accuracy = 0.0027638006
  estimated relative force accuracy = 8.3231035e-06
  3d grid and FFT values/proc = 3136 675
Generated 0 of 1 mixed pair_coeff terms from geometric mixing rule
  update every 1 steps, delay 0 steps, check yes
Step           Dt            CPU            Time           Temp          Press         Density         PotEng         KinEng
0   0.5            0              0              0              6446.9697      0.2510412      1323.8357      0
Averages over the last 251 of 501 rows, steps 250000 to 500000:
Dt Temp Press Density PotEng KinEng
0.5 300.772 -127.701 0.251041 -2346.14 386.41
Loop time of 1008.87 on 16 procs for 500000 steps with 648 atoms

write_data     "final.liquid-vapor.data" nocoeff
System init for write_data ...
PPPM initialization ...
  extracting TIP4P info from pair style
  G vector (1/distance) = 0.23245361
  grid = 15 15 36
  stencil order = 5
  estimated absolute RMS force accuracy = 0.0027638006
  estimated relative force accuracy = 8.3231035e-06
  3d grid and FFT values/proc = 3136 675
Generated 0 of 1 mixed pair_coeff terms from geometric mixing rule
